PDE  1999 01 01 00 00 00.00  5000 2000 -1000 1.4 1.4 test
event name:       test
time shift:       0.0
half duration:    0.5
latorUTM:         0.0
longorUTM:        0.0
depth:            0.0
Mrr:              0.0
Mtt:              0.0
Mpp:              0.0
Mrt:              3.5481338923357315e+23
Mrp:              0.0
Mtp:              0.0
