PDE  1999 01 01 00 00 00.00  5000 2000 -1000 1.4 1.4 test
event name:       point_source_0
time shift:       0.0
half duration:    0.0
latorUTM:         537400.0
longorUTM:        499700.0
depth:            0.0
Mrr:              -0.000000e+00
Mtt:              -0.000000e+00
Mpp:              0.000000e+00
Mrt:              -2.896436e+17
Mrp:              0.000000e+00
Mtp:              -0.000000e+00
./DATA/USER_INPUT_KAMI_fmax5.txt
PDE  1999 01 01 00 00 00.00  5000 2000 -1000 1.4 1.4 test
event name:       point_source_1
time shift:       0.0
half duration:    0.0
latorUTM:         537502.9411764706
longorUTM:        499700.0
depth:            0.0
Mrr:              -0.000000e+00
Mtt:              -0.000000e+00
Mpp:              0.000000e+00
Mrt:              -2.896436e+17
Mrp:              0.000000e+00
Mtp:              -0.000000e+00
./DATA/USER_INPUT_KAMI_fmax5.txt
PDE  1999 01 01 00 00 00.00  5000 2000 -1000 1.4 1.4 test
event name:       point_source_2
time shift:       0.0
half duration:    0.0
latorUTM:         537605.8823529412
longorUTM:        499700.0
depth:            0.0
Mrr:              -0.000000e+00
Mtt:              -0.000000e+00
Mpp:              0.000000e+00
Mrt:              -2.896436e+17
Mrp:              0.000000e+00
Mtp:              -0.000000e+00
./DATA/USER_INPUT_KAMI_fmax5.txt
PDE  1999 01 01 00 00 00.00  5000 2000 -1000 1.4 1.4 test
event name:       point_source_3
time shift:       0.0
half duration:    0.0
latorUTM:         537708.8235294118
longorUTM:        499700.0
depth:            0.0
Mrr:              -0.000000e+00
Mtt:              -0.000000e+00
Mpp:              0.000000e+00
Mrt:              -2.896436e+17
Mrp:              0.000000e+00
Mtp:              -0.000000e+00
./DATA/USER_INPUT_KAMI_fmax5.txt
PDE  1999 01 01 00 00 00.00  5000 2000 -1000 1.4 1.4 test
event name:       point_source_4
time shift:       0.0
half duration:    0.0
latorUTM:         537811.7647058824
longorUTM:        499700.0
depth:            0.0
Mrr:              -0.000000e+00
Mtt:              -0.000000e+00
Mpp:              0.000000e+00
Mrt:              -2.896436e+17
Mrp:              0.000000e+00
Mtp:              -0.000000e+00
./DATA/USER_INPUT_KAMI_fmax5.txt
PDE  1999 01 01 00 00 00.00  5000 2000 -1000 1.4 1.4 test
event name:       point_source_5
time shift:       0.0
half duration:    0.0
latorUTM:         537914.7058823529
longorUTM:        499700.0
depth:            0.0
Mrr:              -0.000000e+00
Mtt:              -0.000000e+00
Mpp:              0.000000e+00
Mrt:              -2.896436e+17
Mrp:              0.000000e+00
Mtp:              -0.000000e+00
./DATA/USER_INPUT_KAMI_fmax5.txt
PDE  1999 01 01 00 00 00.00  5000 2000 -1000 1.4 1.4 test
event name:       point_source_6
time shift:       0.0
half duration:    0.0
latorUTM:         538017.6470588235
longorUTM:        499700.0
depth:            0.0
Mrr:              -0.000000e+00
Mtt:              -0.000000e+00
Mpp:              0.000000e+00
Mrt:              -2.896436e+17
Mrp:              0.000000e+00
Mtp:              -0.000000e+00
./DATA/USER_INPUT_KAMI_fmax5.txt
PDE  1999 01 01 00 00 00.00  5000 2000 -1000 1.4 1.4 test
event name:       point_source_7
time shift:       0.0
half duration:    0.0
latorUTM:         538120.5882352941
longorUTM:        499700.0
depth:            0.0
Mrr:              -0.000000e+00
Mtt:              -0.000000e+00
Mpp:              0.000000e+00
Mrt:              -2.896436e+17
Mrp:              0.000000e+00
Mtp:              -0.000000e+00
./DATA/USER_INPUT_KAMI_fmax5.txt
PDE  1999 01 01 00 00 00.00  5000 2000 -1000 1.4 1.4 test
event name:       point_source_8
time shift:       0.0
half duration:    0.0
latorUTM:         538223.5294117647
longorUTM:        499700.0
depth:            0.0
Mrr:              -0.000000e+00
Mtt:              -0.000000e+00
Mpp:              0.000000e+00
Mrt:              -2.896436e+17
Mrp:              0.000000e+00
Mtp:              -0.000000e+00
./DATA/USER_INPUT_KAMI_fmax5.txt
PDE  1999 01 01 00 00 00.00  5000 2000 -1000 1.4 1.4 test
event name:       point_source_9
time shift:       0.0
half duration:    0.0
latorUTM:         538326.4705882353
longorUTM:        499700.0
depth:            0.0
Mrr:              -0.000000e+00
Mtt:              -0.000000e+00
Mpp:              0.000000e+00
Mrt:              -2.896436e+17
Mrp:              0.000000e+00
Mtp:              -0.000000e+00
./DATA/USER_INPUT_KAMI_fmax5.txt
PDE  1999 01 01 00 00 00.00  5000 2000 -1000 1.4 1.4 test
event name:       point_source_10
time shift:       0.0
half duration:    0.0
latorUTM:         538429.4117647059
longorUTM:        499700.0
depth:            0.0
Mrr:              -0.000000e+00
Mtt:              -0.000000e+00
Mpp:              0.000000e+00
Mrt:              -2.896436e+17
Mrp:              0.000000e+00
Mtp:              -0.000000e+00
./DATA/USER_INPUT_KAMI_fmax5.txt
PDE  1999 01 01 00 00 00.00  5000 2000 -1000 1.4 1.4 test
event name:       point_source_11
time shift:       0.0
half duration:    0.0
latorUTM:         538532.3529411765
longorUTM:        499700.0
depth:            0.0
Mrr:              -0.000000e+00
Mtt:              -0.000000e+00
Mpp:              0.000000e+00
Mrt:              -2.896436e+17
Mrp:              0.000000e+00
Mtp:              -0.000000e+00
./DATA/USER_INPUT_KAMI_fmax5.txt
PDE  1999 01 01 00 00 00.00  5000 2000 -1000 1.4 1.4 test
event name:       point_source_12
time shift:       0.0
half duration:    0.0
latorUTM:         538635.2941176471
longorUTM:        499700.0
depth:            0.0
Mrr:              -0.000000e+00
Mtt:              -0.000000e+00
Mpp:              0.000000e+00
Mrt:              -2.896436e+17
Mrp:              0.000000e+00
Mtp:              -0.000000e+00
./DATA/USER_INPUT_KAMI_fmax5.txt
PDE  1999 01 01 00 00 00.00  5000 2000 -1000 1.4 1.4 test
event name:       point_source_13
time shift:       0.0
half duration:    0.0
latorUTM:         538738.2352941176
longorUTM:        499700.0
depth:            0.0
Mrr:              -0.000000e+00
Mtt:              -0.000000e+00
Mpp:              0.000000e+00
Mrt:              -2.896436e+17
Mrp:              0.000000e+00
Mtp:              -0.000000e+00
./DATA/USER_INPUT_KAMI_fmax5.txt
PDE  1999 01 01 00 00 00.00  5000 2000 -1000 1.4 1.4 test
event name:       point_source_14
time shift:       0.0
half duration:    0.0
latorUTM:         538841.1764705882
longorUTM:        499700.0
depth:            0.0
Mrr:              -0.000000e+00
Mtt:              -0.000000e+00
Mpp:              0.000000e+00
Mrt:              -2.896436e+17
Mrp:              0.000000e+00
Mtp:              -0.000000e+00
./DATA/USER_INPUT_KAMI_fmax5.txt
PDE  1999 01 01 00 00 00.00  5000 2000 -1000 1.4 1.4 test
event name:       point_source_15
time shift:       0.0
half duration:    0.0
latorUTM:         538944.1176470588
longorUTM:        499700.0
depth:            0.0
Mrr:              -0.000000e+00
Mtt:              -0.000000e+00
Mpp:              0.000000e+00
Mrt:              -2.896436e+17
Mrp:              0.000000e+00
Mtp:              -0.000000e+00
./DATA/USER_INPUT_KAMI_fmax5.txt
PDE  1999 01 01 00 00 00.00  5000 2000 -1000 1.4 1.4 test
event name:       point_source_16
time shift:       0.0
half duration:    0.0
latorUTM:         539047.0588235294
longorUTM:        499700.0
depth:            0.0
Mrr:              -0.000000e+00
Mtt:              -0.000000e+00
Mpp:              0.000000e+00
Mrt:              -2.896436e+17
Mrp:              0.000000e+00
Mtp:              -0.000000e+00
./DATA/USER_INPUT_KAMI_fmax5.txt
PDE  1999 01 01 00 00 00.00  5000 2000 -1000 1.4 1.4 test
event name:       point_source_17
time shift:       0.0
half duration:    0.0
latorUTM:         539150.0
longorUTM:        499700.0
depth:            0.0
Mrr:              -0.000000e+00
Mtt:              -0.000000e+00
Mpp:              0.000000e+00
Mrt:              -2.896436e+17
Mrp:              0.000000e+00
Mtp:              -0.000000e+00
./DATA/USER_INPUT_KAMI_fmax5.txt
PDE  1999 01 01 00 00 00.00  5000 2000 -1000 1.4 1.4 test
event name:       point_source_18
time shift:       0.0
half duration:    0.0
latorUTM:         539252.9411764706
longorUTM:        499700.0
depth:            0.0
Mrr:              -0.000000e+00
Mtt:              -0.000000e+00
Mpp:              0.000000e+00
Mrt:              -2.896436e+17
Mrp:              0.000000e+00
Mtp:              -0.000000e+00
./DATA/USER_INPUT_KAMI_fmax5.txt
PDE  1999 01 01 00 00 00.00  5000 2000 -1000 1.4 1.4 test
event name:       point_source_19
time shift:       0.0
half duration:    0.0
latorUTM:         539355.8823529412
longorUTM:        499700.0
depth:            0.0
Mrr:              -0.000000e+00
Mtt:              -0.000000e+00
Mpp:              0.000000e+00
Mrt:              -2.896436e+17
Mrp:              0.000000e+00
Mtp:              -0.000000e+00
./DATA/USER_INPUT_KAMI_fmax5.txt
PDE  1999 01 01 00 00 00.00  5000 2000 -1000 1.4 1.4 test
event name:       point_source_20
time shift:       0.0
half duration:    0.0
latorUTM:         539458.8235294118
longorUTM:        499700.0
depth:            0.0
Mrr:              -0.000000e+00
Mtt:              -0.000000e+00
Mpp:              0.000000e+00
Mrt:              -2.896436e+17
Mrp:              0.000000e+00
Mtp:              -0.000000e+00
./DATA/USER_INPUT_KAMI_fmax5.txt
PDE  1999 01 01 00 00 00.00  5000 2000 -1000 1.4 1.4 test
event name:       point_source_21
time shift:       0.0
half duration:    0.0
latorUTM:         539561.7647058824
longorUTM:        499700.0
depth:            0.0
Mrr:              -0.000000e+00
Mtt:              -0.000000e+00
Mpp:              0.000000e+00
Mrt:              -2.896436e+17
Mrp:              0.000000e+00
Mtp:              -0.000000e+00
./DATA/USER_INPUT_KAMI_fmax5.txt
PDE  1999 01 01 00 00 00.00  5000 2000 -1000 1.4 1.4 test
event name:       point_source_22
time shift:       0.0
half duration:    0.0
latorUTM:         539664.7058823529
longorUTM:        499700.0
depth:            0.0
Mrr:              -0.000000e+00
Mtt:              -0.000000e+00
Mpp:              0.000000e+00
Mrt:              -2.896436e+17
Mrp:              0.000000e+00
Mtp:              -0.000000e+00
./DATA/USER_INPUT_KAMI_fmax5.txt
PDE  1999 01 01 00 00 00.00  5000 2000 -1000 1.4 1.4 test
event name:       point_source_23
time shift:       0.0
half duration:    0.0
latorUTM:         539767.6470588235
longorUTM:        499700.0
depth:            0.0
Mrr:              -0.000000e+00
Mtt:              -0.000000e+00
Mpp:              0.000000e+00
Mrt:              -2.896436e+17
Mrp:              0.000000e+00
Mtp:              -0.000000e+00
./DATA/USER_INPUT_KAMI_fmax5.txt
PDE  1999 01 01 00 00 00.00  5000 2000 -1000 1.4 1.4 test
event name:       point_source_24
time shift:       0.0
half duration:    0.0
latorUTM:         539870.5882352941
longorUTM:        499700.0
depth:            0.0
Mrr:              -0.000000e+00
Mtt:              -0.000000e+00
Mpp:              0.000000e+00
Mrt:              -2.896436e+17
Mrp:              0.000000e+00
Mtp:              -0.000000e+00
./DATA/USER_INPUT_KAMI_fmax5.txt
PDE  1999 01 01 00 00 00.00  5000 2000 -1000 1.4 1.4 test
event name:       point_source_25
time shift:       0.0
half duration:    0.0
latorUTM:         539973.5294117647
longorUTM:        499700.0
depth:            0.0
Mrr:              -0.000000e+00
Mtt:              -0.000000e+00
Mpp:              0.000000e+00
Mrt:              -2.896436e+17
Mrp:              0.000000e+00
Mtp:              -0.000000e+00
./DATA/USER_INPUT_KAMI_fmax5.txt
PDE  1999 01 01 00 00 00.00  5000 2000 -1000 1.4 1.4 test
event name:       point_source_26
time shift:       0.0
half duration:    0.0
latorUTM:         540076.4705882353
longorUTM:        499700.0
depth:            0.0
Mrr:              -0.000000e+00
Mtt:              -0.000000e+00
Mpp:              0.000000e+00
Mrt:              -2.896436e+17
Mrp:              0.000000e+00
Mtp:              -0.000000e+00
./DATA/USER_INPUT_KAMI_fmax5.txt
PDE  1999 01 01 00 00 00.00  5000 2000 -1000 1.4 1.4 test
event name:       point_source_27
time shift:       0.0
half duration:    0.0
latorUTM:         540179.4117647059
longorUTM:        499700.0
depth:            0.0
Mrr:              -0.000000e+00
Mtt:              -0.000000e+00
Mpp:              0.000000e+00
Mrt:              -2.896436e+17
Mrp:              0.000000e+00
Mtp:              -0.000000e+00
./DATA/USER_INPUT_KAMI_fmax5.txt
PDE  1999 01 01 00 00 00.00  5000 2000 -1000 1.4 1.4 test
event name:       point_source_28
time shift:       0.0
half duration:    0.0
latorUTM:         540282.3529411765
longorUTM:        499700.0
depth:            0.0
Mrr:              -0.000000e+00
Mtt:              -0.000000e+00
Mpp:              0.000000e+00
Mrt:              -2.896436e+17
Mrp:              0.000000e+00
Mtp:              -0.000000e+00
./DATA/USER_INPUT_KAMI_fmax5.txt
PDE  1999 01 01 00 00 00.00  5000 2000 -1000 1.4 1.4 test
event name:       point_source_29
time shift:       0.0
half duration:    0.0
latorUTM:         540385.2941176471
longorUTM:        499700.0
depth:            0.0
Mrr:              -0.000000e+00
Mtt:              -0.000000e+00
Mpp:              0.000000e+00
Mrt:              -2.896436e+17
Mrp:              0.000000e+00
Mtp:              -0.000000e+00
./DATA/USER_INPUT_KAMI_fmax5.txt
PDE  1999 01 01 00 00 00.00  5000 2000 -1000 1.4 1.4 test
event name:       point_source_30
time shift:       0.0
half duration:    0.0
latorUTM:         540488.2352941176
longorUTM:        499700.0
depth:            0.0
Mrr:              -0.000000e+00
Mtt:              -0.000000e+00
Mpp:              0.000000e+00
Mrt:              -2.896436e+17
Mrp:              0.000000e+00
Mtp:              -0.000000e+00
./DATA/USER_INPUT_KAMI_fmax5.txt
PDE  1999 01 01 00 00 00.00  5000 2000 -1000 1.4 1.4 test
event name:       point_source_31
time shift:       0.0
half duration:    0.0
latorUTM:         540591.1764705882
longorUTM:        499700.0
depth:            0.0
Mrr:              -0.000000e+00
Mtt:              -0.000000e+00
Mpp:              0.000000e+00
Mrt:              -2.896436e+17
Mrp:              0.000000e+00
Mtp:              -0.000000e+00
./DATA/USER_INPUT_KAMI_fmax5.txt
PDE  1999 01 01 00 00 00.00  5000 2000 -1000 1.4 1.4 test
event name:       point_source_32
time shift:       0.0
half duration:    0.0
latorUTM:         540694.1176470588
longorUTM:        499700.0
depth:            0.0
Mrr:              -0.000000e+00
Mtt:              -0.000000e+00
Mpp:              0.000000e+00
Mrt:              -2.896436e+17
Mrp:              0.000000e+00
Mtp:              -0.000000e+00
./DATA/USER_INPUT_KAMI_fmax5.txt
PDE  1999 01 01 00 00 00.00  5000 2000 -1000 1.4 1.4 test
event name:       point_source_33
time shift:       0.0
half duration:    0.0
latorUTM:         540797.0588235294
longorUTM:        499700.0
depth:            0.0
Mrr:              -0.000000e+00
Mtt:              -0.000000e+00
Mpp:              0.000000e+00
Mrt:              -2.896436e+17
Mrp:              0.000000e+00
Mtp:              -0.000000e+00
./DATA/USER_INPUT_KAMI_fmax5.txt
PDE  1999 01 01 00 00 00.00  5000 2000 -1000 1.4 1.4 test
event name:       point_source_34
time shift:       0.0
half duration:    0.0
latorUTM:         540900.0
longorUTM:        499700.0
depth:            0.0
Mrr:              -0.000000e+00
Mtt:              -0.000000e+00
Mpp:              0.000000e+00
Mrt:              -2.896436e+17
Mrp:              0.000000e+00
Mtp:              -0.000000e+00
./DATA/USER_INPUT_KAMI_fmax5.txt
PDE  1999 01 01 00 00 00.00  5000 2000 -1000 1.4 1.4 test
event name:       point_source_35
time shift:       0.0
half duration:    0.0
latorUTM:         537400.0
longorUTM:        499597.0588235294
depth:            0.0
Mrr:              -0.000000e+00
Mtt:              -0.000000e+00
Mpp:              0.000000e+00
Mrt:              -2.896436e+17
Mrp:              0.000000e+00
Mtp:              -0.000000e+00
./DATA/USER_INPUT_KAMI_fmax5.txt
PDE  1999 01 01 00 00 00.00  5000 2000 -1000 1.4 1.4 test
event name:       point_source_36
time shift:       0.0
half duration:    0.0
latorUTM:         537502.9411764706
longorUTM:        499597.0588235294
depth:            0.0
Mrr:              -0.000000e+00
Mtt:              -0.000000e+00
Mpp:              0.000000e+00
Mrt:              -2.896436e+17
Mrp:              0.000000e+00
Mtp:              -0.000000e+00
./DATA/USER_INPUT_KAMI_fmax5.txt
PDE  1999 01 01 00 00 00.00  5000 2000 -1000 1.4 1.4 test
event name:       point_source_37
time shift:       0.0
half duration:    0.0
latorUTM:         537605.8823529412
longorUTM:        499597.0588235294
depth:            0.0
Mrr:              -0.000000e+00
Mtt:              -0.000000e+00
Mpp:              0.000000e+00
Mrt:              -2.896436e+17
Mrp:              0.000000e+00
Mtp:              -0.000000e+00
./DATA/USER_INPUT_KAMI_fmax5.txt
PDE  1999 01 01 00 00 00.00  5000 2000 -1000 1.4 1.4 test
event name:       point_source_38
time shift:       0.0
half duration:    0.0
latorUTM:         537708.8235294118
longorUTM:        499597.0588235294
depth:            0.0
Mrr:              -0.000000e+00
Mtt:              -0.000000e+00
Mpp:              0.000000e+00
Mrt:              -2.896436e+17
Mrp:              0.000000e+00
Mtp:              -0.000000e+00
./DATA/USER_INPUT_KAMI_fmax5.txt
PDE  1999 01 01 00 00 00.00  5000 2000 -1000 1.4 1.4 test
event name:       point_source_39
time shift:       0.0
half duration:    0.0
latorUTM:         537811.7647058824
longorUTM:        499597.0588235294
depth:            0.0
Mrr:              -0.000000e+00
Mtt:              -0.000000e+00
Mpp:              0.000000e+00
Mrt:              -2.896436e+17
Mrp:              0.000000e+00
Mtp:              -0.000000e+00
./DATA/USER_INPUT_KAMI_fmax5.txt
PDE  1999 01 01 00 00 00.00  5000 2000 -1000 1.4 1.4 test
event name:       point_source_40
time shift:       0.0
half duration:    0.0
latorUTM:         537914.7058823529
longorUTM:        499597.0588235294
depth:            0.0
Mrr:              -0.000000e+00
Mtt:              -0.000000e+00
Mpp:              0.000000e+00
Mrt:              -2.896436e+17
Mrp:              0.000000e+00
Mtp:              -0.000000e+00
./DATA/USER_INPUT_KAMI_fmax5.txt
PDE  1999 01 01 00 00 00.00  5000 2000 -1000 1.4 1.4 test
event name:       point_source_41
time shift:       0.0
half duration:    0.0
latorUTM:         538017.6470588235
longorUTM:        499597.0588235294
depth:            0.0
Mrr:              -0.000000e+00
Mtt:              -0.000000e+00
Mpp:              0.000000e+00
Mrt:              -2.896436e+17
Mrp:              0.000000e+00
Mtp:              -0.000000e+00
./DATA/USER_INPUT_KAMI_fmax5.txt
PDE  1999 01 01 00 00 00.00  5000 2000 -1000 1.4 1.4 test
event name:       point_source_42
time shift:       0.0
half duration:    0.0
latorUTM:         538120.5882352941
longorUTM:        499597.0588235294
depth:            0.0
Mrr:              -0.000000e+00
Mtt:              -0.000000e+00
Mpp:              0.000000e+00
Mrt:              -2.896436e+17
Mrp:              0.000000e+00
Mtp:              -0.000000e+00
./DATA/USER_INPUT_KAMI_fmax5.txt
PDE  1999 01 01 00 00 00.00  5000 2000 -1000 1.4 1.4 test
event name:       point_source_43
time shift:       0.0
half duration:    0.0
latorUTM:         538223.5294117647
longorUTM:        499597.0588235294
depth:            0.0
Mrr:              -0.000000e+00
Mtt:              -0.000000e+00
Mpp:              0.000000e+00
Mrt:              -2.896436e+17
Mrp:              0.000000e+00
Mtp:              -0.000000e+00
./DATA/USER_INPUT_KAMI_fmax5.txt
PDE  1999 01 01 00 00 00.00  5000 2000 -1000 1.4 1.4 test
event name:       point_source_44
time shift:       0.0
half duration:    0.0
latorUTM:         538326.4705882353
longorUTM:        499597.0588235294
depth:            0.0
Mrr:              -0.000000e+00
Mtt:              -0.000000e+00
Mpp:              0.000000e+00
Mrt:              -2.896436e+17
Mrp:              0.000000e+00
Mtp:              -0.000000e+00
./DATA/USER_INPUT_KAMI_fmax5.txt
PDE  1999 01 01 00 00 00.00  5000 2000 -1000 1.4 1.4 test
event name:       point_source_45
time shift:       0.0
half duration:    0.0
latorUTM:         538429.4117647059
longorUTM:        499597.0588235294
depth:            0.0
Mrr:              -0.000000e+00
Mtt:              -0.000000e+00
Mpp:              0.000000e+00
Mrt:              -2.896436e+17
Mrp:              0.000000e+00
Mtp:              -0.000000e+00
./DATA/USER_INPUT_KAMI_fmax5.txt
PDE  1999 01 01 00 00 00.00  5000 2000 -1000 1.4 1.4 test
event name:       point_source_46
time shift:       0.0
half duration:    0.0
latorUTM:         538532.3529411765
longorUTM:        499597.0588235294
depth:            0.0
Mrr:              -0.000000e+00
Mtt:              -0.000000e+00
Mpp:              0.000000e+00
Mrt:              -2.896436e+17
Mrp:              0.000000e+00
Mtp:              -0.000000e+00
./DATA/USER_INPUT_KAMI_fmax5.txt
PDE  1999 01 01 00 00 00.00  5000 2000 -1000 1.4 1.4 test
event name:       point_source_47
time shift:       0.0
half duration:    0.0
latorUTM:         538635.2941176471
longorUTM:        499597.0588235294
depth:            0.0
Mrr:              -0.000000e+00
Mtt:              -0.000000e+00
Mpp:              0.000000e+00
Mrt:              -2.896436e+17
Mrp:              0.000000e+00
Mtp:              -0.000000e+00
./DATA/USER_INPUT_KAMI_fmax5.txt
PDE  1999 01 01 00 00 00.00  5000 2000 -1000 1.4 1.4 test
event name:       point_source_48
time shift:       0.0
half duration:    0.0
latorUTM:         538738.2352941176
longorUTM:        499597.0588235294
depth:            0.0
Mrr:              -0.000000e+00
Mtt:              -0.000000e+00
Mpp:              0.000000e+00
Mrt:              -2.896436e+17
Mrp:              0.000000e+00
Mtp:              -0.000000e+00
./DATA/USER_INPUT_KAMI_fmax5.txt
PDE  1999 01 01 00 00 00.00  5000 2000 -1000 1.4 1.4 test
event name:       point_source_49
time shift:       0.0
half duration:    0.0
latorUTM:         538841.1764705882
longorUTM:        499597.0588235294
depth:            0.0
Mrr:              -0.000000e+00
Mtt:              -0.000000e+00
Mpp:              0.000000e+00
Mrt:              -2.896436e+17
Mrp:              0.000000e+00
Mtp:              -0.000000e+00
./DATA/USER_INPUT_KAMI_fmax5.txt
PDE  1999 01 01 00 00 00.00  5000 2000 -1000 1.4 1.4 test
event name:       point_source_50
time shift:       0.0
half duration:    0.0
latorUTM:         538944.1176470588
longorUTM:        499597.0588235294
depth:            0.0
Mrr:              -0.000000e+00
Mtt:              -0.000000e+00
Mpp:              0.000000e+00
Mrt:              -2.896436e+17
Mrp:              0.000000e+00
Mtp:              -0.000000e+00
./DATA/USER_INPUT_KAMI_fmax5.txt
PDE  1999 01 01 00 00 00.00  5000 2000 -1000 1.4 1.4 test
event name:       point_source_51
time shift:       0.0
half duration:    0.0
latorUTM:         539047.0588235294
longorUTM:        499597.0588235294
depth:            0.0
Mrr:              -0.000000e+00
Mtt:              -0.000000e+00
Mpp:              0.000000e+00
Mrt:              -2.896436e+17
Mrp:              0.000000e+00
Mtp:              -0.000000e+00
./DATA/USER_INPUT_KAMI_fmax5.txt
PDE  1999 01 01 00 00 00.00  5000 2000 -1000 1.4 1.4 test
event name:       point_source_52
time shift:       0.0
half duration:    0.0
latorUTM:         539150.0
longorUTM:        499597.0588235294
depth:            0.0
Mrr:              -0.000000e+00
Mtt:              -0.000000e+00
Mpp:              0.000000e+00
Mrt:              -2.896436e+17
Mrp:              0.000000e+00
Mtp:              -0.000000e+00
./DATA/USER_INPUT_KAMI_fmax5.txt
PDE  1999 01 01 00 00 00.00  5000 2000 -1000 1.4 1.4 test
event name:       point_source_53
time shift:       0.0
half duration:    0.0
latorUTM:         539252.9411764706
longorUTM:        499597.0588235294
depth:            0.0
Mrr:              -0.000000e+00
Mtt:              -0.000000e+00
Mpp:              0.000000e+00
Mrt:              -2.896436e+17
Mrp:              0.000000e+00
Mtp:              -0.000000e+00
./DATA/USER_INPUT_KAMI_fmax5.txt
PDE  1999 01 01 00 00 00.00  5000 2000 -1000 1.4 1.4 test
event name:       point_source_54
time shift:       0.0
half duration:    0.0
latorUTM:         539355.8823529412
longorUTM:        499597.0588235294
depth:            0.0
Mrr:              -0.000000e+00
Mtt:              -0.000000e+00
Mpp:              0.000000e+00
Mrt:              -2.896436e+17
Mrp:              0.000000e+00
Mtp:              -0.000000e+00
./DATA/USER_INPUT_KAMI_fmax5.txt
PDE  1999 01 01 00 00 00.00  5000 2000 -1000 1.4 1.4 test
event name:       point_source_55
time shift:       0.0
half duration:    0.0
latorUTM:         539458.8235294118
longorUTM:        499597.0588235294
depth:            0.0
Mrr:              -0.000000e+00
Mtt:              -0.000000e+00
Mpp:              0.000000e+00
Mrt:              -2.896436e+17
Mrp:              0.000000e+00
Mtp:              -0.000000e+00
./DATA/USER_INPUT_KAMI_fmax5.txt
PDE  1999 01 01 00 00 00.00  5000 2000 -1000 1.4 1.4 test
event name:       point_source_56
time shift:       0.0
half duration:    0.0
latorUTM:         539561.7647058824
longorUTM:        499597.0588235294
depth:            0.0
Mrr:              -0.000000e+00
Mtt:              -0.000000e+00
Mpp:              0.000000e+00
Mrt:              -2.896436e+17
Mrp:              0.000000e+00
Mtp:              -0.000000e+00
./DATA/USER_INPUT_KAMI_fmax5.txt
PDE  1999 01 01 00 00 00.00  5000 2000 -1000 1.4 1.4 test
event name:       point_source_57
time shift:       0.0
half duration:    0.0
latorUTM:         539664.7058823529
longorUTM:        499597.0588235294
depth:            0.0
Mrr:              -0.000000e+00
Mtt:              -0.000000e+00
Mpp:              0.000000e+00
Mrt:              -2.896436e+17
Mrp:              0.000000e+00
Mtp:              -0.000000e+00
./DATA/USER_INPUT_KAMI_fmax5.txt
PDE  1999 01 01 00 00 00.00  5000 2000 -1000 1.4 1.4 test
event name:       point_source_58
time shift:       0.0
half duration:    0.0
latorUTM:         539767.6470588235
longorUTM:        499597.0588235294
depth:            0.0
Mrr:              -0.000000e+00
Mtt:              -0.000000e+00
Mpp:              0.000000e+00
Mrt:              -2.896436e+17
Mrp:              0.000000e+00
Mtp:              -0.000000e+00
./DATA/USER_INPUT_KAMI_fmax5.txt
PDE  1999 01 01 00 00 00.00  5000 2000 -1000 1.4 1.4 test
event name:       point_source_59
time shift:       0.0
half duration:    0.0
latorUTM:         539870.5882352941
longorUTM:        499597.0588235294
depth:            0.0
Mrr:              -0.000000e+00
Mtt:              -0.000000e+00
Mpp:              0.000000e+00
Mrt:              -2.896436e+17
Mrp:              0.000000e+00
Mtp:              -0.000000e+00
./DATA/USER_INPUT_KAMI_fmax5.txt
PDE  1999 01 01 00 00 00.00  5000 2000 -1000 1.4 1.4 test
event name:       point_source_60
time shift:       0.0
half duration:    0.0
latorUTM:         539973.5294117647
longorUTM:        499597.0588235294
depth:            0.0
Mrr:              -0.000000e+00
Mtt:              -0.000000e+00
Mpp:              0.000000e+00
Mrt:              -2.896436e+17
Mrp:              0.000000e+00
Mtp:              -0.000000e+00
./DATA/USER_INPUT_KAMI_fmax5.txt
PDE  1999 01 01 00 00 00.00  5000 2000 -1000 1.4 1.4 test
event name:       point_source_61
time shift:       0.0
half duration:    0.0
latorUTM:         540076.4705882353
longorUTM:        499597.0588235294
depth:            0.0
Mrr:              -0.000000e+00
Mtt:              -0.000000e+00
Mpp:              0.000000e+00
Mrt:              -2.896436e+17
Mrp:              0.000000e+00
Mtp:              -0.000000e+00
./DATA/USER_INPUT_KAMI_fmax5.txt
PDE  1999 01 01 00 00 00.00  5000 2000 -1000 1.4 1.4 test
event name:       point_source_62
time shift:       0.0
half duration:    0.0
latorUTM:         540179.4117647059
longorUTM:        499597.0588235294
depth:            0.0
Mrr:              -0.000000e+00
Mtt:              -0.000000e+00
Mpp:              0.000000e+00
Mrt:              -2.896436e+17
Mrp:              0.000000e+00
Mtp:              -0.000000e+00
./DATA/USER_INPUT_KAMI_fmax5.txt
PDE  1999 01 01 00 00 00.00  5000 2000 -1000 1.4 1.4 test
event name:       point_source_63
time shift:       0.0
half duration:    0.0
latorUTM:         540282.3529411765
longorUTM:        499597.0588235294
depth:            0.0
Mrr:              -0.000000e+00
Mtt:              -0.000000e+00
Mpp:              0.000000e+00
Mrt:              -2.896436e+17
Mrp:              0.000000e+00
Mtp:              -0.000000e+00
./DATA/USER_INPUT_KAMI_fmax5.txt
PDE  1999 01 01 00 00 00.00  5000 2000 -1000 1.4 1.4 test
event name:       point_source_64
time shift:       0.0
half duration:    0.0
latorUTM:         540385.2941176471
longorUTM:        499597.0588235294
depth:            0.0
Mrr:              -0.000000e+00
Mtt:              -0.000000e+00
Mpp:              0.000000e+00
Mrt:              -2.896436e+17
Mrp:              0.000000e+00
Mtp:              -0.000000e+00
./DATA/USER_INPUT_KAMI_fmax5.txt
PDE  1999 01 01 00 00 00.00  5000 2000 -1000 1.4 1.4 test
event name:       point_source_65
time shift:       0.0
half duration:    0.0
latorUTM:         540488.2352941176
longorUTM:        499597.0588235294
depth:            0.0
Mrr:              -0.000000e+00
Mtt:              -0.000000e+00
Mpp:              0.000000e+00
Mrt:              -2.896436e+17
Mrp:              0.000000e+00
Mtp:              -0.000000e+00
./DATA/USER_INPUT_KAMI_fmax5.txt
PDE  1999 01 01 00 00 00.00  5000 2000 -1000 1.4 1.4 test
event name:       point_source_66
time shift:       0.0
half duration:    0.0
latorUTM:         540591.1764705882
longorUTM:        499597.0588235294
depth:            0.0
Mrr:              -0.000000e+00
Mtt:              -0.000000e+00
Mpp:              0.000000e+00
Mrt:              -2.896436e+17
Mrp:              0.000000e+00
Mtp:              -0.000000e+00
./DATA/USER_INPUT_KAMI_fmax5.txt